data_SMBA2PbI4_150.000_150.000

_cell_length_a           8.431820
_cell_length_b           8.761390
_cell_length_c          27.071240
_cell_angle_alpha       90.024560
_cell_angle_beta        90.007310
_cell_angle_gamma       90.000530
_cell_volume          1999.873129

loop_
        _atom_site_label
        _atom_site_fract_x
        _atom_site_fract_y
        _atom_site_fract_z
        _atom_site_type_symbol
    Pb1   0.647950  0.743360  0.574720 Pb
    Pb2   0.147950  0.243360  0.574720 Pb
    Pb3  -0.647950 -0.243360  0.074720 Pb
    Pb4  -0.147950  0.256640  0.074720 Pb
    I1    0.467556  0.428892  0.574720 I
    I2   -0.032444  0.557828  0.574720 I
    I3    0.328344 -0.071108  0.574720 I
    I4   -0.171656  0.057828  0.574720 I
    I5    0.627826  0.708280  0.689608 I
    I6    0.627826  0.708280  0.459832 I
    I7    0.084618  0.353762  0.689608 I
    I8    0.084618  0.353762  0.459832 I
    I9   -0.467556  0.071108  0.074720 I
    I10   0.032444 -0.057828  0.074720 I
    I11  -0.328344  0.571108  0.074720 I
    I12   0.171656  0.442172  0.074720 I
    I13  -0.627826 -0.208280  0.189608 I
    I14  -0.627826 -0.208280 -0.040168 I
    I15  -0.084618  0.146238  0.189608 I
    I16  -0.084618  0.146238 -0.040168 I
    C1    0.797818  0.260866  0.828175 C
    C2    0.702173  0.760931  0.820469 C
    C3    0.202159  0.239092  0.328159 C
    C4    0.297826  0.739134  0.320458 C
    C5    0.212904  0.207779  0.822228 C
    C6    0.287096  0.707742  0.826386 C
    C7    0.787101  0.292240  0.322242 C
    C8    0.712904  0.792238  0.326394 C
    C9    0.317434  0.114643  0.796453 C
    C10   0.182584  0.614602  0.852139 C
    C11   0.682618  0.385415  0.296484 C
    C12   0.817431  0.885352  0.352184 C
    C13   0.679916  0.358931  0.844603 C
    C14   0.820056  0.859033  0.804080 C
    C15   0.320026  0.140997  0.344567 C
    C16   0.179945  0.641044  0.304024 C
    C17   0.367952  0.172923  0.896440 C
    C18   0.131940  0.672984  0.752181 C
    C19   0.631953  0.327001  0.396435 C
    C20   0.867981  0.827113  0.252201 C
    C21   0.446926  0.050646  0.820401 C
    C22   0.053035  0.550663  0.828187 C
    C23   0.553083  0.449371  0.320429 C
    C24   0.946940  0.949348  0.328256 C
    C25   0.399925  0.211681  0.949574 C
    C26   0.099956  0.711751  0.699059 C
    C27   0.599960  0.288230  0.449554 C
    C28   0.899963  0.788373  0.199067 C
    C29   0.566321  0.365509  0.763266 C
    C30   0.933746  0.865422  0.885405 C
    C31   0.433751  0.134571  0.263254 C
    C32   0.066329  0.634489  0.385348 C
    C33   0.237649  0.236052  0.872158 C
    C34   0.262291  0.736061  0.776468 C
    C35   0.762289  0.263905  0.372155 C
    C36   0.737665  0.763982  0.276465 C
    C37   0.564428  0.412100  0.812251 C
    C38   0.935586  0.912129  0.836446 C
    C39   0.435569  0.087884  0.312218 C
    C40   0.064452  0.587876  0.336366 C
    C41   0.472586  0.079847  0.870189 C
    C42   0.027310  0.579921  0.778414 C
    C43   0.527346  0.420099  0.370198 C
    C44   0.972617  0.920168  0.278469 C
    C45   0.534248  0.150713  0.675474 C
    C46   0.965830  0.650483  0.973107 C
    C47   0.465868  0.349467  0.175538 C
    C48   0.034222  0.849330  0.473123 C
    C49   0.419620  0.380583  0.958933 C
    C50   0.080268  0.880652  0.689743 C
    C51   0.580295  0.119328  0.458873 C
    C52   0.919664  0.619475  0.189705 C
    C53   0.685264  0.267493  0.746416 C
    C54   0.814810  0.767382  0.902218 C
    C55   0.314826  0.232610  0.246423 C
    C56   0.185262  0.732524  0.402206 C
    C57   0.688710  0.215403  0.693751 C
    C58   0.811373  0.715215  0.954860 C
    C59   0.311406  0.284757  0.193778 C
    C60   0.188690  0.784629  0.454869 C
    C61   0.801465  0.216997  0.778970 C
    C62   0.698568  0.716965  0.869652 C
    C63   0.198578  0.283041  0.278975 C
    C64   0.301462  0.783022  0.369660 C
    H1    0.885720  0.216548  0.854236 H
    H2    0.614247  0.716657  0.794393 H
    H3    0.114218  0.283376  0.354223 H
    H4    0.385724  0.783459  0.294401 H
    H5    0.114278  0.262554  0.802855 H
    H6    0.385762  0.762481  0.845765 H
    H7    0.885754  0.237484  0.302867 H
    H8    0.614263  0.737464  0.345753 H
    H9    0.298359  0.095549  0.756949 H
    H10   0.201721  0.595454  0.891632 H
    H11   0.701762  0.404580  0.256993 H
    H12   0.798339  0.904433  0.391687 H
    H13   0.679216  0.391944  0.883567 H
    H14   0.820718  0.892131  0.765133 H
    H15   0.320668  0.107910  0.383516 H
    H16   0.179262  0.608011  0.265061 H
    H17   0.531467  0.979821  0.800134 H
    H18   0.968503  0.479836  0.848437 H
    H19   0.468571  0.520228  0.300174 H
    H20   0.031481  0.020161  0.348535 H
    H21   0.506960  0.149971  0.962070 H
    H22  -0.007077  0.650038  0.686544 H
    H23   0.492917  0.349930  0.462056 H
    H24   1.006995  0.850094  0.186582 H
    H25   0.471738  0.403393  0.738339 H
    H26   1.028364  0.903234  0.910343 H
    H27   0.528374  0.096743  0.238330 H
    H28  -0.028253  0.596605  0.410267 H
    H29   0.155016  0.310402  0.892130 H
    H30   0.344920  0.810402  0.756513 H
    H31   0.844895  0.189537  0.392114 H
    H32   0.655032  0.689648  0.256480 H
    H33   0.469225  0.486861  0.825233 H
    H34   0.030776  0.986916  0.823489 H
    H35   0.530749  0.013100  0.325187 H
    H36   0.969262  0.513098  0.323377 H
    H37   0.576815  0.031841  0.888684 H
    H38   0.923038  0.531961  0.759916 H
    H39   0.423088  0.468074  0.388690 H
    H40   0.076853  0.968179  0.259988 H
    H41   0.717549  0.324418  0.625107 H
    H42   0.782541  0.824190  1.023543 H
    H43   0.282562  0.175763  0.125097 H
    H44   0.217519  0.675633  0.523519 H
    H45   0.677572  0.448849  0.671213 H
    H46   0.822512  0.948638  0.977473 H
    H47   0.322529  0.051326  0.171172 H
    H48   0.177517  0.551192  0.477413 H
    H49   0.859166  0.365811  0.666959 H
    H50   0.640926  0.865610  0.981702 H
    H51   0.140947  0.134363  0.166929 H
    H52   0.359121  0.634207  0.481676 H
    H53   0.269753  0.033500  0.980436 H
    H54   0.230191  0.533572  0.668175 H
    H55   0.730163  0.466432  0.480450 H
    H56   0.769777  0.966550  0.168200 H
    H57   0.281600  0.188789  1.017584 H
    H58   0.218254  0.688785  0.631040 H
    H59   0.718255  0.311211  0.517583 H
    H60   0.781643  0.811273  0.131048 H
    H61   0.155349  0.190419  0.969624 H
    H62   0.344528  0.690555  0.678997 H
    H63   0.844524  0.309468  0.469634 H
    H64   0.655389  0.809613  0.178998 H
    H65   0.543869  0.115508  0.636518 H
    H66   0.956218  0.615222  1.012049 H
    H67   0.456252  0.384708  0.136593 H
    H68   0.043817  0.884541  0.512081 H
    H69   0.504033  0.048470  0.697105 H
    H70   0.996016  0.548265  0.951432 H
    H71   0.496071  0.451695  0.197208 H
    H72   0.004034  0.951574  0.451487 H
    H73   0.436357  0.233155  0.678733 H
    H74   0.063734  0.732915  0.969878 H
    H75   0.563763  0.267026  0.178778 H
    H76   0.936325  0.766895  0.469850 H
    H77   0.310133  0.444058  0.950534 H
    H78   0.189761  0.944121  0.698160 H
    H79   0.689809  0.055876  0.450479 H
    H80   0.810176  0.555993  0.198092 H
    H81   0.452171  0.403943  0.997668 H
    H82   0.047731  0.904007  0.651013 H
    H83   0.547720  0.095983  0.497598 H
    H84   0.952221  0.596128  0.150973 H
    H85   0.514357  0.426142  0.935295 H
    H86  -0.014471  0.926217  0.713391 H
    H87   0.485595  0.073729  0.435209 H
    H88   1.014398  0.573910  0.213351 H
    H89   0.784517  0.130620  0.688849 H
    H90   0.715557  0.630431  0.959728 H
    H91   0.215599  0.369546  0.188899 H
    H92   0.284501  0.869410  0.459780 H
    H93   0.895425  0.141999  0.765283 H
    H94   0.604620  0.641946  0.883312 H
    H95   0.104636  0.358057  0.265300 H
    H96   0.395409  0.858039  0.383354 H
    N1    0.736706  0.347296  0.662244 N
    N2    0.763383  0.847083  0.986413 N
    N3    0.263404  0.152882  0.162226 N
    N4    0.236667  0.652741  0.486383 N
    N5    0.268041  0.153630  0.981192 N
    N6    0.231849  0.653701  0.667429 N
    N7    0.731841  0.346303  0.481195 N
    N8    0.768076  0.846420  0.167441 N
