data_SMBA2PbI4_150.000_150.000

_cell_length_a           8.431827
_cell_length_b           8.761390
_cell_length_c          27.071240
_cell_angle_alpha       90.000000
_cell_angle_beta        90.000000
_cell_angle_gamma       90.000000
_cell_volume          1999.874990

loop_
    _atom_site_label
    _atom_site_fract_x
    _atom_site_fract_y
    _atom_site_fract_z
    _atom_site_type_symbol
    Pb1   0.647950  0.743360  0.574720 Pb
    Pb2   0.147950  0.243360  0.574720 Pb
    Pb3  -0.647950 -0.243360  0.074720 Pb
    Pb4  -0.147950  0.256640  0.074720 Pb
    I1    0.467556  0.428892  0.574720 I
    I2   -0.032444  0.557828  0.574720 I
    I3    0.328344 -0.071108  0.574720 I
    I4   -0.171656  0.057828  0.574720 I
    I5    0.627826  0.708280  0.689608 I
    I6    0.627826  0.708280  0.459832 I
    I7    0.084618  0.353762  0.689608 I
    I8    0.084618  0.353762  0.459832 I
    I9   -0.467556  0.071108  0.074720 I
    I10   0.032444 -0.057828  0.074720 I
    I11  -0.328344  0.571108  0.074720 I
    I12   0.171656  0.442172  0.074720 I
    I13  -0.627826 -0.208280  0.189608 I
    I14  -0.627826 -0.208280 -0.040168 I
    I15  -0.084618  0.146238  0.189608 I
    I16  -0.084618  0.146238 -0.040168 I
