data_SMBA2PbI4_150.000_150.000

_cell_length_a           8.431804
_cell_length_b           8.761369
_cell_length_c          27.071186
_cell_angle_alpha       90.024556
_cell_angle_beta        90.007317
_cell_angle_gamma       90.000551
_cell_volume          1999.860579

loop_
    _atom_site_label
    _atom_site_fract_x
    _atom_site_fract_y
    _atom_site_fract_z
    _atom_site_type_symbol
    Pb1   0.647950  0.743359  0.574235 Pb
    Pb2   0.147950  0.243360  0.574565 Pb
    Pb3  -0.647950 -0.243361  0.074215 Pb
    Pb4  -0.147950  0.256640  0.074589 Pb
    I1    0.467555  0.428890  0.573099 I
    I2   -0.032444  0.557828  0.574904 I
    I3    0.328345 -0.071107  0.574869 I
    I4   -0.171656  0.057827  0.574164 I
    I5    0.638815  0.721902  0.688877 I
    I6    0.626925  0.706453  0.459713 I
    I7    0.127747  0.288529  0.688842 I
    I8    0.140378  0.271026  0.460011 I
    I9   -0.467556  0.071105  0.073098 I
    I10   0.032445 -0.057827  0.074932 I
    I11  -0.328344  0.571108  0.074850 I
    I12   0.171655  0.442172  0.074198 I
    I13  -0.638874 -0.221730  0.188854 I
    I14  -0.626899 -0.206509 -0.040308 I
    I15  -0.127635  0.211581  0.188864 I
    I16  -0.140475  0.228788 -0.039962 I
    C1    0.800717  0.261190  0.828711 C
    C2    0.699723  0.760988  0.820031 C
    C3    0.199271  0.238773  0.328691 C
    C4    0.300287  0.739083  0.320020 C
    C5    0.211609  0.208398  0.821390 C
    C6    0.287438  0.708134  0.827146 C
    C7    0.788403  0.291627  0.321411 C
    C8    0.712568  0.791853  0.327163 C
    C9    0.316414  0.114684  0.795962 C
    C10   0.182763  0.615134  0.852862 C
    C11   0.683652  0.385382  0.296001 C
    C12   0.817266  0.884817  0.352915 C
    C13   0.682364  0.359459  0.844672 C
    C14   0.817821  0.858924  0.803727 C
    C15   0.317596  0.140476  0.344631 C
    C16   0.182185  0.641154  0.303674 C
    C17   0.365685  0.175242  0.895878 C
    C18   0.133131  0.672529  0.752825 C
    C19   0.634229  0.324686  0.395880 C
    C20   0.866793  0.827571  0.252853 C
    C21   0.445705  0.051435  0.820204 C
    C22   0.053424  0.551044  0.828846 C
    C23   0.554309  0.448591  0.320241 C
    C24   0.946568  0.948964  0.328922 C
    C25   0.396487  0.214539  0.949020 C
    C26   0.101793  0.711298  0.699695 C
    C27   0.603421  0.285382  0.449008 C
    C28   0.898130  0.788819  0.199713 C
    C29   0.569397  0.362502  0.763249 C
    C30   0.930858  0.865124  0.885127 C
    C31   0.430688  0.137593  0.263232 C
    C32   0.069226  0.634784  0.385071 C
    C33   0.235657  0.237596  0.871303 C
    C34   0.263131  0.735860  0.777187 C
    C35   0.764293  0.262361  0.371306 C
    C36   0.736823  0.764190  0.277191 C
    C37   0.567067  0.411134  0.812009 C
    C38   0.933175  0.911864  0.836193 C
    C39   0.432950  0.088861  0.311969 C
    C40   0.066877  0.588146  0.336113 C
    C41   0.470833  0.081805  0.869937 C
    C42   0.028172  0.579747  0.779022 C
    C43   0.529112  0.418142  0.369955 C
    C44   0.971760  0.920340  0.279084 C
    C45   0.537090  0.144070  0.676808 C
    C46   0.963005  0.649509  0.972221 C
    C47   0.463016  0.356100  0.176861 C
    C48   0.037049  0.850301  0.472236 C
    C49   0.420907  0.383016  0.958278 C
    C50   0.079493  0.880066  0.690555 C
    C51   0.579014  0.116910  0.458229 C
    C52   0.920424  0.620050  0.190530 C
    C53   0.688777  0.264223  0.746862 C
    C54   0.811462  0.767497  0.901886 C
    C55   0.311324  0.235885  0.246865 C
    C56   0.188623  0.732409  0.401874 C
    C57   0.692117  0.209314  0.694498 C
    C58   0.808133  0.714858  0.954469 C
    C59   0.307994  0.290845  0.194521 C
    C60   0.191935  0.784984  0.454479 C
    C61   0.805094  0.215712  0.779662 C
    C62   0.695467  0.717293  0.869225 C
    C63   0.194953  0.284330  0.279662 C
    C64   0.304569  0.782697  0.369237 C
    H1    0.888521  0.218078  0.855011 H
    H2    0.611902  0.716796  0.793906 H
    H3    0.111432  0.281847  0.354992 H
    H4    0.388075  0.783326  0.293915 H
    H5    0.113320  0.262862  0.801784 H
    H6    0.386035  0.762906  0.846535 H
    H7    0.886721  0.237182  0.301803 H
    H8    0.613997  0.737048  0.346532 H
    H9    0.297762  0.094529  0.756495 H
    H10   0.201684  0.596066  0.892360 H
    H11   0.702371  0.405616  0.256548 H
    H12   0.798400  0.903812  0.392423 H
    H13   0.681238  0.393919  0.883508 H
    H14   0.818609  0.892167  0.764801 H
    H15   0.318669  0.105943  0.383450 H
    H16   0.181381  0.607981  0.264731 H
    H17   0.530555  0.980245  0.800197 H
    H18   0.968759  0.480442  0.849115 H
    H19   0.469493  0.519812  0.300247 H
    H20   0.031245  0.019543  0.349221 H
    H21   0.501113  0.150213  0.962089 H
    H22  -0.003952  0.648206  0.686888 H
    H23   0.498794  0.349707  0.462086 H
    H24   1.003884  0.851907  0.186936 H
    H25   0.474753  0.398911  0.738128 H
    H26   1.025618  0.902542  0.910064 H
    H27   0.525376  0.101244  0.238114 H
    H28  -0.025495  0.597292  0.409991 H
    H29   0.152732  0.312323  0.891006 H
    H30   0.345730  0.810228  0.757231 H
    H31   0.847189  0.187615  0.390996 H
    H32   0.654215  0.689837  0.257207 H
    H33   0.471554  0.486135  0.824632 H
    H34   0.028752  0.986285  0.823287 H
    H35   0.528441  0.013842  0.324580 H
    H36   0.971292  0.513732  0.323177 H
    H37   0.574906  0.034316  0.888634 H
    H38   0.924076  0.531600  0.760476 H
    H39   0.425007  0.465602  0.388649 H
    H40   0.075823  0.968535  0.260554 H
    H41   0.721079  0.313906  0.625271 H
    H42   0.779489  0.821930  1.023312 H
    H43   0.278982  0.186269  0.125261 H
    H44   0.220559  0.677892  0.523290 H
    H45   0.681090  0.441171  0.670663 H
    H46   0.820728  0.947694  0.977616 H
    H47   0.318990  0.059000  0.170621 H
    H48   0.179308  0.552134  0.477557 H
    H49   0.862917  0.358546  0.667001 H
    H50   0.638404  0.866050  0.981371 H
    H51   0.137174  0.141625  0.166978 H
    H52   0.361644  0.633768  0.481350 H
    H53   0.262056  0.040281  0.980287 H
    H54   0.233489  0.535620  0.668017 H
    H55   0.737893  0.459657  0.480308 H
    H56   0.766496  0.964501  0.168049 H
    H57   0.274301  0.198226  1.016438 H
    H58   0.224148  0.695091  0.632259 H
    H59   0.725597  0.301776  0.516440 H
    H60   0.775779  0.804977  0.132271 H
    H61   0.150142  0.197508  0.967866 H
    H62   0.347510  0.690952  0.680905 H
    H63   0.849763  0.302386  0.467876 H
    H64   0.652418  0.809218  0.180907 H
    H65   0.545769  0.106237  0.638094 H
    H66   0.954611  0.613066  1.011055 H
    H67   0.454326  0.393956  0.138159 H
    H68   0.045418  0.886696  0.511086 H
    H69   0.506750  0.043600  0.699272 H
    H70   0.992334  0.547874  0.950151 H
    H71   0.493352  0.456561  0.199360 H
    H72   0.007719  0.951959  0.450204 H
    H73   0.439801  0.227274  0.679709 H
    H74   0.061036  0.731814  0.968978 H
    H75   0.560310  0.272901  0.179741 H
    H76   0.939029  0.767989  0.468949 H
    H77   0.313053  0.449480  0.950207 H
    H78   0.188693  0.944602  0.698470 H
    H79   0.686873  0.050449  0.450153 H
    H80   0.811209  0.555521  0.198406 H
    H81   0.454998  0.405188  0.996965 H
    H82   0.044809  0.903225  0.651989 H
    H83   0.544934  0.094763  0.496910 H
    H84   0.955156  0.596889  0.151966 H
    H85   0.516460  0.425848  0.934426 H
    H86  -0.014398  0.924349  0.714773 H
    H87   0.483459  0.074053  0.434363 H
    H88   1.014277  0.575754  0.214754 H
    H89   0.787494  0.123898  0.690055 H
    H90   0.712248  0.630128  0.959362 H
    H91   0.212619  0.376268  0.190102 H
    H92   0.287814  0.869713  0.459417 H
    H93   0.899569  0.140728  0.766321 H
    H94   0.601310  0.642398  0.882801 H
    H95   0.100493  0.359322  0.266333 H
    H96   0.398726  0.857592  0.382844 H
    N1    0.740557  0.339416  0.662254 N
    N2    0.760599  0.846481  0.986234 N
    N3    0.259530  0.160757  0.162237 N
    N4    0.239450  0.653343  0.486207 N
    N5    0.261783  0.160349  0.980240 N
    N6    0.235464  0.655671  0.668331 N
    N7    0.738132  0.339589  0.480247 N
    N8    0.764476  0.844451  0.168348 N
